[TITLE]
;;Project Title/Notes

[OPTIONS]
;;Option             Value
FLOW_UNITS           CFS
INFILTRATION         HORTON
FLOW_ROUTING         DYNWAVE
LINK_OFFSETS         DEPTH
MIN_SLOPE            0
ALLOW_PONDING        NO
SKIP_STEADY_STATE    NO

START_DATE           01/01/2015
START_TIME           00:00:00
REPORT_START_DATE    01/01/2015
REPORT_START_TIME    00:00:00
END_DATE             01/03/2015
END_TIME             06:00:00
SWEEP_START          01/01
SWEEP_END            12/31
DRY_DAYS             0
REPORT_STEP          00:15:00
WET_STEP             00:05:00
DRY_STEP             01:00:00
ROUTING_STEP         0:00:30 

INERTIAL_DAMPING     NONE
NORMAL_FLOW_LIMITED  BOTH
FORCE_MAIN_EQUATION  H-W
VARIABLE_STEP        0.75
LENGTHENING_STEP     0
MIN_SURFAREA         12.557
MAX_TRIALS           8
HEAD_TOLERANCE       0.005
SYS_FLOW_TOL         5
LAT_FLOW_TOL         5
MINIMUM_STEP         0.5
THREADS              1

[EVAPORATION]
;;Data Source    Parameters
;;-------------- ----------------
CONSTANT         0.0
DRY_ONLY         NO

[JUNCTIONS]
;;Name           Elevation  MaxDepth   InitDepth  SurDepth   Aponded   
;;-------------- ---------- ---------- ---------- ---------- ----------
N1               40         0          0          0          0         
N2               10         0          0          0          0         

[OUTFALLS]
;;Name           Elevation  Type       Stage Data       Gated    Route To        
;;-------------- ---------- ---------- ---------------- -------- ----------------
O3               0          FREE                        NO                       

[CONDUITS]
;;Name           From Node        To Node          Length     Roughness  InOffset   OutOffset  InitFlow   MaxFlow   
;;-------------- ---------------- ---------------- ---------- ---------- ---------- ---------- ---------- ----------
Link1            N1               N2               100        0.03       0          0          0          0         
Link2            N2               O3               100        0.03       0          0          0          0         

[XSECTIONS]
;;Link           Shape        Geom1            Geom2      Geom3      Geom4      Barrels    Culvert   
;;-------------- ------------ ---------------- ---------- ---------- ---------- ---------- ----------
Link1            RECT_OPEN    3                5          0          0          1                    
Link2            RECT_OPEN    3                5          0          0          1                    

[INFLOWS]
;;Node           Constituent      Time Series      Type     Mfactor  Sfactor  Baseline Pattern
;;-------------- ---------------- ---------------- -------- -------- -------- -------- --------
N1               FLOW             Sine             FLOW     1.0      1.0      1       

[TIMESERIES]
;;Name           Date       Time       Value     
;;-------------- ---------- ---------- ----------
sine             1/1/2015   0:00       0         
sine             1/1/2015   0:02       0         
sine             1/1/2015   0:04       0         
sine             1/1/2015   0:06       0         
sine             1/1/2015   0:08       0         
sine             1/1/2015   0:10       100       
sine             1/1/2015   0:12       100       
sine             1/1/2015   0:14       100       
sine             1/1/2015   0:16       100       
sine             1/1/2015   0:18       100       
sine             1/1/2015   0:20       100       
sine             1/1/2015   0:22       100       
sine             1/1/2015   0:24       100       
sine             1/1/2015   0:26       100       
sine             1/1/2015   0:28       100       
sine             1/1/2015   0:30       0         
sine             1/1/2015   0:32       0         
sine             1/1/2015   0:34       0         
sine             1/1/2015   0:36       0         
sine             1/1/2015   0:38       0         
sine             1/1/2015   0:40       100       
sine             1/1/2015   0:42       100       
sine             1/1/2015   0:44       100       
sine             1/1/2015   0:46       100       
sine             1/1/2015   0:48       100       
sine             1/1/2015   0:50       100       
sine             1/1/2015   0:52       100       
sine             1/1/2015   0:54       100       
sine             1/1/2015   0:56       100       
sine             1/1/2015   0:58       100       
sine             1/1/2015   1:00       0         
sine             1/1/2015   1:02       0         
sine             1/1/2015   1:04       0         
sine             1/1/2015   1:06       0         
sine             1/1/2015   1:08       0         
sine             1/1/2015   1:10       100       
sine             1/1/2015   1:12       100       
sine             1/1/2015   1:14       100       
sine             1/1/2015   1:16       100       
sine             1/1/2015   1:18       100       
sine             1/1/2015   1:20       100       
sine             1/1/2015   1:22       100       
sine             1/1/2015   1:24       100       
sine             1/1/2015   1:26       100       
sine             1/1/2015   1:28       100       
sine             1/1/2015   1:30       0         
sine             1/1/2015   1:32       0         
sine             1/1/2015   1:34       0         
sine             1/1/2015   1:36       0         
sine             1/1/2015   1:38       0         
sine             1/1/2015   1:40       100       
sine             1/1/2015   1:42       100       
sine             1/1/2015   1:44       100       
sine             1/1/2015   1:46       100       
sine             1/1/2015   1:48       100       
sine             1/1/2015   1:50       100       
sine             1/1/2015   1:52       100       
sine             1/1/2015   1:54       100       
sine             1/1/2015   1:56       100       
sine             1/1/2015   1:58       100       
sine             1/1/2015   2:00       0         
sine             1/1/2015   2:02       0         
sine             1/1/2015   2:04       0         
sine             1/1/2015   2:06       0         
sine             1/1/2015   2:08       0         
sine             1/1/2015   2:10       100       
sine             1/1/2015   2:12       100       
sine             1/1/2015   2:14       100       
sine             1/1/2015   2:16       100       
sine             1/1/2015   2:18       100       
sine             1/1/2015   2:20       100       
sine             1/1/2015   2:22       100       
sine             1/1/2015   2:24       100       
sine             1/1/2015   2:26       100       
sine             1/1/2015   2:28       100       
sine             1/1/2015   2:30       0         
sine             1/1/2015   2:32       0         
sine             1/1/2015   2:34       0         
sine             1/1/2015   2:36       0         
sine             1/1/2015   2:38       0         
sine             1/1/2015   2:40       100       
sine             1/1/2015   2:42       100       
sine             1/1/2015   2:44       100       
sine             1/1/2015   2:46       100       
sine             1/1/2015   2:48       100       
sine             1/1/2015   2:50       100       
sine             1/1/2015   2:52       100       
sine             1/1/2015   2:54       100       
sine             1/1/2015   2:56       100       
sine             1/1/2015   2:58       100       
sine             1/1/2015   3:00       0         
sine             1/1/2015   3:02       0         
sine             1/1/2015   3:04       0         
sine             1/1/2015   3:06       0         
sine             1/1/2015   3:08       0         
sine             1/1/2015   3:10       100       
sine             1/1/2015   3:12       100       
sine             1/1/2015   3:14       100       
sine             1/1/2015   3:16       100       
sine             1/1/2015   3:18       100       
sine             1/1/2015   3:20       100       
sine             1/1/2015   3:22       100       
sine             1/1/2015   3:24       100       
sine             1/1/2015   3:26       100       
sine             1/1/2015   3:28       100       
sine             1/1/2015   3:30       0         
sine             1/1/2015   3:32       0         
sine             1/1/2015   3:34       0         
sine             1/1/2015   3:36       0         
sine             1/1/2015   3:38       0         
sine             1/1/2015   3:40       100       
sine             1/1/2015   3:42       100       
sine             1/1/2015   3:44       100       
sine             1/1/2015   3:46       100       
sine             1/1/2015   3:48       100       
sine             1/1/2015   3:50       100       
sine             1/1/2015   3:52       100       
sine             1/1/2015   3:54       100       
sine             1/1/2015   3:56       100       
sine             1/1/2015   3:58       100       
sine             1/1/2015   4:00       0         
sine             1/1/2015   4:02       0         
sine             1/1/2015   4:04       0         
sine             1/1/2015   4:06       0         
sine             1/1/2015   4:08       0         
sine             1/1/2015   4:10       100       
sine             1/1/2015   4:12       100       
sine             1/1/2015   4:14       100       
sine             1/1/2015   4:16       100       
sine             1/1/2015   4:18       100       
sine             1/1/2015   4:20       100       
sine             1/1/2015   4:22       100       
sine             1/1/2015   4:24       100       
sine             1/1/2015   4:26       100       
sine             1/1/2015   4:28       100       
sine             1/1/2015   4:30       0         
sine             1/1/2015   4:32       0         
sine             1/1/2015   4:34       0         
sine             1/1/2015   4:36       0         
sine             1/1/2015   4:38       0         
sine             1/1/2015   4:40       100       
sine             1/1/2015   4:42       100       
sine             1/1/2015   4:44       100       
sine             1/1/2015   4:46       100       
sine             1/1/2015   4:48       100       
sine             1/1/2015   4:50       100       
sine             1/1/2015   4:52       100       
sine             1/1/2015   4:54       100       
sine             1/1/2015   4:56       100       
sine             1/1/2015   4:58       100       
sine             1/1/2015   5:00       0         
sine             1/1/2015   5:02       0         
sine             1/1/2015   5:04       0         
sine             1/1/2015   5:06       0         
sine             1/1/2015   5:08       0         
sine             1/1/2015   5:10       100       
sine             1/1/2015   5:12       100       
sine             1/1/2015   5:14       100       
sine             1/1/2015   5:16       100       
sine             1/1/2015   5:18       100       
sine             1/1/2015   5:20       100       
sine             1/1/2015   5:22       100       
sine             1/1/2015   5:24       100       
sine             1/1/2015   5:26       100       
sine             1/1/2015   5:28       100       
sine             1/1/2015   5:30       0         
sine             1/1/2015   5:32       0         
sine             1/1/2015   5:34       0         
sine             1/1/2015   5:36       0         
sine             1/1/2015   5:38       0         
sine             1/1/2015   5:40       100       
sine             1/1/2015   5:42       100       
sine             1/1/2015   5:44       100       
sine             1/1/2015   5:46       100       
sine             1/1/2015   5:48       100       
sine             1/1/2015   5:50       100       
sine             1/1/2015   5:52       100       
sine             1/1/2015   5:54       100       
sine             1/1/2015   5:56       100       
sine             1/1/2015   5:58       100       
sine             1/1/2015   6:00       0         
sine             1/1/2015   6:02       0         
sine             1/1/2015   6:04       0         
sine             1/1/2015   6:06       0         
sine             1/1/2015   6:08       0         
sine             1/1/2015   6:10       100       
sine             1/1/2015   6:12       100       
sine             1/1/2015   6:14       100       
sine             1/1/2015   6:16       100       
sine             1/1/2015   6:18       100       
sine             1/1/2015   6:20       100       
sine             1/1/2015   6:22       100       
sine             1/1/2015   6:24       100       
sine             1/1/2015   6:26       100       
sine             1/1/2015   6:28       100       
sine             1/1/2015   6:30       0         
sine             1/1/2015   6:32       0         
sine             1/1/2015   6:34       0         
sine             1/1/2015   6:36       0         
sine             1/1/2015   6:38       0         
sine             1/1/2015   6:40       100       
sine             1/1/2015   6:42       100       
sine             1/1/2015   6:44       100       
sine             1/1/2015   6:46       100       
sine             1/1/2015   6:48       100       
sine             1/1/2015   6:50       100       
sine             1/1/2015   6:52       100       
sine             1/1/2015   6:54       100       
sine             1/1/2015   6:56       100       
sine             1/1/2015   6:58       100       
sine             1/1/2015   7:00       0         
sine             1/1/2015   7:02       0         
sine             1/1/2015   7:04       0         
sine             1/1/2015   7:06       0         
sine             1/1/2015   7:08       0         
sine             1/1/2015   7:10       100       
sine             1/1/2015   7:12       100       
sine             1/1/2015   7:14       100       
sine             1/1/2015   7:16       100       
sine             1/1/2015   7:18       100       
sine             1/1/2015   7:20       100       
sine             1/1/2015   7:22       100       
sine             1/1/2015   7:24       100       
sine             1/1/2015   7:26       100       
sine             1/1/2015   7:28       100       
sine             1/1/2015   7:30       0         
sine             1/1/2015   7:32       0         
sine             1/1/2015   7:34       0         
sine             1/1/2015   7:36       0         
sine             1/1/2015   7:38       0         
sine             1/1/2015   7:40       100       
sine             1/1/2015   7:42       100       
sine             1/1/2015   7:44       100       
sine             1/1/2015   7:46       100       
sine             1/1/2015   7:48       100       
sine             1/1/2015   7:50       100       
sine             1/1/2015   7:52       100       
sine             1/1/2015   7:54       100       
sine             1/1/2015   7:56       100       
sine             1/1/2015   7:58       100       
sine             1/1/2015   8:00       0         
sine             1/1/2015   8:02       0         
sine             1/1/2015   8:04       0         
sine             1/1/2015   8:06       0         
sine             1/1/2015   8:08       0         
sine             1/1/2015   8:10       100       
sine             1/1/2015   8:12       100       
sine             1/1/2015   8:14       100       
sine             1/1/2015   8:16       100       
sine             1/1/2015   8:18       100       
sine             1/1/2015   8:20       100       
sine             1/1/2015   8:22       100       
sine             1/1/2015   8:24       100       
sine             1/1/2015   8:26       100       
sine             1/1/2015   8:28       100       
sine             1/1/2015   8:30       0         
sine             1/1/2015   8:32       0         
sine             1/1/2015   8:34       0         
sine             1/1/2015   8:36       0         
sine             1/1/2015   8:38       0         
sine             1/1/2015   8:40       100       
sine             1/1/2015   8:42       100       
sine             1/1/2015   8:44       100       
sine             1/1/2015   8:46       100       
sine             1/1/2015   8:48       100       
sine             1/1/2015   8:50       100       
sine             1/1/2015   8:52       100       
sine             1/1/2015   8:54       100       
sine             1/1/2015   8:56       100       
sine             1/1/2015   8:58       100       
sine             1/1/2015   9:00       0         
sine             1/1/2015   9:02       0         
sine             1/1/2015   9:04       0         
sine             1/1/2015   9:06       0         
sine             1/1/2015   9:08       0         
sine             1/1/2015   9:10       100       
sine             1/1/2015   9:12       100       
sine             1/1/2015   9:14       100       
sine             1/1/2015   9:16       100       
sine             1/1/2015   9:18       100       
sine             1/1/2015   9:20       100       
sine             1/1/2015   9:22       100       
sine             1/1/2015   9:24       100       
sine             1/1/2015   9:26       100       
sine             1/1/2015   9:28       100       
sine             1/1/2015   9:30       2.447174185
sine             1/1/2015   9:32       0         
sine             1/1/2015   9:34       0         

[REPORT]
;;Reporting Options
INPUT      NO
CONTROLS   NO
SUBCATCHMENTS ALL
NODES ALL
LINKS ALL

[TAGS]

[MAP]
DIMENSIONS 0.000 0.000 10000.000 10000.000
Units      None

[COORDINATES]
;;Node           X-Coord            Y-Coord           
;;-------------- ------------------ ------------------
N1               1365.063           5533.473          
N2               4743.724           4246.862          
O3               9126.569           3765.690          

[VERTICES]
;;Link           X-Coord            Y-Coord           
;;-------------- ------------------ ------------------

